&init
sigma		= 	7,							!factor de deformação
A0			= 	-200000.,							!valor maximo do campo inicial de psi
alpha		=   1.5,							!Gauss-Siedel over-relaxation factor
jactyp		=	1
/
&domains
e_ns		=	50,
e_we		= 	150,
dx			=	125000.,
dy			= 	125000.,
dt			= 	1800.,
nint		=   96150,
lat			=   45.,
lon			=	320.	
/
$io
io_out		=	'out_barotrp_jkb123_80x40.nc',
io_dt		=	4								!Sample of time for output netcdf file					
/
